LAMMPS (10 Feb 2021)
variable        rand equal round(random(0,1e7,452345))
include		settings.lmp
units              real
atom_style         full
timestep	   0.5
boundary 	   p p f
kspace_style	   pppm 1e-6
kspace_modify	   slab 3.0

pair_style         lj/charmm/coul/long 8 12
bond_style         harmonic
angle_style        charmm
dihedral_style     charmm
improper_style     harmonic

pair_modify        mix arithmetic
special_bonds      charmm
neighbor           2.0 bin
neigh_modify       every 1 delay 0 check yes

read_data	fa_on_001_rotated.data
Reading data file ...
  orthogonal box = (0.0000000 0.0000000 0.0000000) to (8.4800000 8.4800000 100.00000)
  reading atoms ...
  129 atoms
  reading velocities ...
  129 velocities
  scanning bonds ...
  scanning angles ...
  scanning impropers ...
  reading bonds ...
  4 bonds
  reading angles ...
  4 angles
  reading impropers ...
  1 impropers
Finding 1-2 1-3 1-4 neighbors ...
     3 = max # of 1-2 neighbors
     2 = max # of 1-3 neighbors
     2 = max # of 1-4 neighbors
     3 = max # of special neighbors

include		ff_formic_acid_fe304.param
#####################-----formic_acid-----######################################

mass		1     12.011  # CG2O2
mass		2      1.008  # HGR52
mass		3    15.9994  # OG2D1
mass		4    15.9994  # OG311
mass		5      1.008  # HGP1

pair_coeff	1  1   0.098    3.02905564168   0.098    3.02905564168  # CG2O2
pair_coeff	2  2   0.046    1.60361769265   0.046    1.60361769265  # HGR52
pair_coeff	3  3    0.12    3.02905564168    0.12    2.49451641079  # OG2D1
pair_coeff	4  4  0.1921    3.14487247504  0.1921    3.14487247504  # OG311
pair_coeff	5  5   0.046   0.400013524445   0.046   0.400013524445  # HGP1

bond_coeff	1  348  1.096  # CG2O2  HGR52
bond_coeff	2  750   1.22  # CG2O2  OG2D1
bond_coeff	3  230    1.4  # CG2O2  OG311
bond_coeff	4  545   0.96  # HGP1   OG311

angle_coeff	1  55  115    0      0  # CG2O2  OG311  HGP1
angle_coeff	2  39  119    0      0  # HGR52  CG2O2  OG2D1
angle_coeff	3  47  105    0      0  # HGR52  CG2O2  OG311
angle_coeff	4  50  123  210  2.262  # OG2D1  CG2O2  OG311

dihedral_coeff	1  3.45  2  180  1  # HGP1 OG311 CG2O2 HGR52
dihedral_coeff	2  2.05  2  180  1  # HGP1 OG311 CG2O2 OG2D1

improper_coeff	1  75  0  # CG2O2 OG2D1 OG311 HGR52

#####################-----magnetite-----#########################################

pair_coeff      6  6   9.0298e-07  4.07222  0  0 # Fe2
pair_coeff      7  7   9.0298e-07  4.07222  0  0 # Fe3
pair_coeff      8  8       0.1554  3.16554  0  0 # O

mass		6  55.845   # Fe2
mass		7  55.845   # Fe3
mass		8  15.9994  # O

#####################-----formate-----###########################################

mass		9     12.011   # CG2O3
mass		10   15.9994   # OG2D2

pair_coeff	9  9	0.07   3.56359487256    0.07	3.56359487256  # CG2O3
pair_coeff	10 10	0.12   3.02905564168	0.12    3.02905564168  # OG2D2

bond_coeff	5  238	1.1422  # CG2O3	HGR52
bond_coeff	6  525	  1.26	# CG2O3 OG2D2

angle_coeff	5   45	 116	0	 0  # HGR52 CG2O3 OG2D2
angle_coeff	6  100	 128   70   2.2587  # OG2D2 CG2O3 OG2D2

improper_coeff	2   67   0 # CG2O3 OG2D2 OG2D2 HGR52

##############---------magnetite_bonding-------###################################

pair_coeff      11 11 0.1554 3.1655 0.0 0.0     # Oh (Hydroxyl oxygen from Kerisit)
pair_coeff      12 12 0.0 0.0 0.0 0.0           # Ho (Hydroxyl hydrogen from Kerisit)

pair_coeff      13 13 9.0298e-07 4.07222  0 0   # DUMMY - Fe(III) first dummy atom
pair_coeff      14 14 0.1554 3.1655 0.0 0.0     # DUMMY - Oh (Hydroxyl oxygen from Kerisit)
pair_coeff      15 15 0.0 0.0 0.0 0.0           # DUMMY - Ho (Hydroxyl hydrogen from Kerisit)

mass            11 15.9994 # Oh
mass            12 1.008   # Ho

mass            13 55.845  # DUMMY - Fe(III)
mass            14 15.9994 # DUMMY - Oh
mass            15 1.008   # DUMMY - Ho

bond_coeff      7  554.1349  1.0  # Oh - Ho (CLayFF)

angle_coeff     7  30.0 109.470 0 0 # FeOct - Oh - Ho (ClayFF)

################################################################################################

dump            dmp all custom 1000 swap.lammpstrj id type q x y z
dump_modify     dmp sort id

####------------ Initial relaxation of the system-----------###############
fix		nve all nve
thermo		1000
thermo_style	custom step temp pe
run		1000
PPPM initialization ...
  G vector (1/distance) = 0.28920668
  grid = 15 15 192
  stencil order = 5
  estimated absolute RMS force accuracy = 0.00032408823
  estimated relative force accuracy = 9.7598207e-07
  3d grid and FFT values/proc = 80064 30600
  update every 1 steps, delay 0 steps, check yes
Step Temp PotEng
0    104.83113   -26016.857
Loop time of 2.62539 on 8 procs for 1000 steps with 129 atoms

#run		2000000				# 1ns run
unfix		nve
variable	t equal temp

#####----------electrostatic relaxation with mc swaps--------------########
group           Fe type 7 6
49 atoms in group Fe
fix             swp Fe atom/swap 1 100 855824 179.962854562108 types 6 7
thermo          10
thermo_style    custom step temp pe f_swp[1] f_swp[2]
run             20
PPPM initialization ...
  G vector (1/distance) = 0.28920668
  grid = 15 15 192
  stencil order = 5
  estimated absolute RMS force accuracy = 0.00032408823
  estimated relative force accuracy = 9.7598207e-07
  3d grid and FFT values/proc = 80064 30600
Step Temp PotEng f_swp[1] f_swp[2]
1000    179.96285   -26045.546            0            0
Loop time of 6.09752 on 8 procs for 20 steps with 129 atoms

unfix		swp

####----------cool down to 0K--------------------------------############
variable        t equal temp
fix		nvt all nvt temp 179.962854562108 0.0001 $(100*dt)
fix		nvt all nvt temp 179.962854562108 0.0001 50
thermo		1000
thermo_style    custom step temp press pe lz
run		100
PPPM initialization ...
  G vector (1/distance) = 0.28920668
  grid = 15 15 192
  stencil order = 5
  estimated absolute RMS force accuracy = 0.00032408823
  estimated relative force accuracy = 9.7598207e-07
  3d grid and FFT values/proc = 80064 30600
Step Temp Press PotEng Lz
1020    179.96285    443.41667   -26045.546          100
Loop time of 0.268554 on 8 procs for 100 steps with 129 atoms

write_data	fa_on_001_3.data
System init for write_data ...
PPPM initialization ...
  G vector (1/distance) = 0.28920668
  grid = 15 15 192
  stencil order = 5
  estimated absolute RMS force accuracy = 0.00032408823
  estimated relative force accuracy = 9.7598207e-07
  3d grid and FFT values/proc = 80064 30600
unfix nvt

#####----------electrostatic relaxation with mc swaps--------------########
fix             swp Fe atom/swap 1 100 710414 0.0 types 6 7
thermo          10
thermo_style    custom step temp pe f_swp[1] f_swp[2]
run             20
PPPM initialization ...
  G vector (1/distance) = 0.28920668
  grid = 15 15 192
  stencil order = 5
  estimated absolute RMS force accuracy = 0.00032408823
  estimated relative force accuracy = 9.7598207e-07
  3d grid and FFT values/proc = 80064 30600
Step Temp PotEng f_swp[1] f_swp[2]
1120 1.3454568e-14   -26054.779            0            0
Loop time of 6.20844 on 8 procs for 20 steps with 129 atoms

write_data	fa_on_001_4.data
System init for write_data ...
PPPM initialization ...
  G vector (1/distance) = 0.28920668
  grid = 15 15 192
  stencil order = 5
  estimated absolute RMS force accuracy = 0.00032408823
  estimated relative force accuracy = 9.7598207e-07
  3d grid and FFT values/proc = 80064 30600

####----------minimize formate-------------------------------------#######
group		immobile type 2 9 10
4 atoms in group immobile
fix		freeze immobile setforce 0.0 0.0 0.0
minimize	1.0e-6 1.0e-9 1000 10000
PPPM initialization ...
  G vector (1/distance) = 0.28920668
  grid = 15 15 192
  stencil order = 5
  estimated absolute RMS force accuracy = 0.00032408823
  estimated relative force accuracy = 9.7598207e-07
  3d grid and FFT values/proc = 80064 30600
Step Temp PotEng f_swp[1] f_swp[2]
1140 1.3454568e-14   -26054.779         2000            0
Loop time of 0.219598 on 8 procs for 31 steps with 129 atoms

Minimization stats:
  Stopping criterion = energy tolerance
  Energy initial, next-to-last, final =
  Force two-norm initial, final = 210.78447 6.2303399
  Force max component initial, final = 40.242554 3.7586882
  Final line search alpha, max atom move = 0.050989979 0.19165543
  Iterations, force evaluations = 31 62

thermo		10
thermo_style    custom step temp pe
unfix		swp
unfix		freeze
write_data	fa_on_001_5.data
System init for write_data ...
PPPM initialization ...
  G vector (1/distance) = 0.28920668
  grid = 15 15 192
  stencil order = 5
  estimated absolute RMS force accuracy = 0.00032408823
  estimated relative force accuracy = 9.7598207e-07
  3d grid and FFT values/proc = 80064 30600

########-----electrostatic relaxation wit mc swaps------------###########
fix             swp Fe atom/swap 1 100 755762 0.0 types 6 7
thermo          10
thermo_style    custom step temp pe f_swp[1] f_swp[2]
run             20
PPPM initialization ...
  G vector (1/distance) = 0.28920668
  grid = 15 15 192
  stencil order = 5
  estimated absolute RMS force accuracy = 0.00032408823
  estimated relative force accuracy = 9.7598207e-07
  3d grid and FFT values/proc = 80064 30600
Step Temp PotEng f_swp[1] f_swp[2]
1171 1.3454568e-14   -26109.785            0            0
Loop time of 6.05394 on 8 procs for 20 steps with 129 atoms

#######------ minimize full structure----------------------------########
minimize	1.0e-6 1.0e-9 1000 10000
PPPM initialization ...
  G vector (1/distance) = 0.28920668
  grid = 15 15 192
  stencil order = 5
  estimated absolute RMS force accuracy = 0.00032408823
  estimated relative force accuracy = 9.7598207e-07
  3d grid and FFT values/proc = 80064 30600
Step Temp PotEng f_swp[1] f_swp[2]
1191 1.3454568e-14   -26109.785         2000            0
Loop time of 0.138989 on 8 procs for 20 steps with 129 atoms

Minimization stats:
  Stopping criterion = energy tolerance
  Energy initial, next-to-last, final =
  Force two-norm initial, final = 80.385362 5.7173220
  Force max component initial, final = 41.968255 3.5221573
  Final line search alpha, max atom move = 0.014743603 0.051929288
  Iterations, force evaluations = 20 40

thermo_style    custom step temp pe
unfix		swp

write_data	fa_on_001_min.data
System init for write_data ...
PPPM initialization ...
  G vector (1/distance) = 0.28920668
  grid = 15 15 192
  stencil order = 5
  estimated absolute RMS force accuracy = 0.00032408823
  estimated relative force accuracy = 9.7598207e-07
  3d grid and FFT values/proc = 80064 30600
