LAMMPS (10 Feb 2021)
variable	q3 equal 1.575
variable        rand equal round(random(0,1e7,452345))
include         settings.lmp
units              real
atom_style         full
timestep	   0.5
boundary 	   p p f
kspace_style	   pppm 1e-6
kspace_modify	   slab 3.0

pair_style         lj/charmm/coul/long 8 12
bond_style         harmonic
angle_style        charmm
dihedral_style     charmm
improper_style     harmonic

pair_modify        mix arithmetic
special_bonds      charmm
neighbor           2.0 bin
neigh_modify       every 1 delay 0 check yes

read_data       fa_on_001_17L.data
Reading data file ...
  orthogonal box = (0.0000000 0.0000000 0.0000000) to (8.4800000 8.4800000 100.00000)
  reading atoms ...
  129 atoms
  reading velocities ...
  129 velocities
  scanning bonds ...
  scanning angles ...
  scanning dihedrals ...
  scanning impropers ...
  reading bonds ...
  4 bonds
  reading angles ...
  4 angles
  reading dihedrals ...
  2 dihedrals
  reading impropers ...
  1 impropers
Finding 1-2 1-3 1-4 neighbors ...
     3 = max # of 1-2 neighbors
     2 = max # of 1-3 neighbors
     3 = max # of 1-4 neighbors
     4 = max # of special neighbors

include         ff_formic_acid_fe304.param
#####################-----formic_acid-----######################################

mass		1     12.011  # CG2O2
mass		2      1.008  # HGR52
mass		3    15.9994  # OG2D1
mass		4    15.9994  # OG311
mass		5      1.008  # HGP1

pair_coeff	1  1   0.098    3.02905564168   0.098    3.02905564168  # CG2O2
pair_coeff	2  2   0.046    1.60361769265   0.046    1.60361769265  # HGR52
pair_coeff	3  3    0.12    3.02905564168    0.12    2.49451641079  # OG2D1
pair_coeff	4  4  0.1921    3.14487247504  0.1921    3.14487247504  # OG311
pair_coeff	5  5   0.046   0.400013524445   0.046   0.400013524445  # HGP1

bond_coeff	1  348  1.096  # CG2O2  HGR52
bond_coeff	2  750   1.22  # CG2O2  OG2D1
bond_coeff	3  230    1.4  # CG2O2  OG311
bond_coeff	4  545   0.96  # HGP1   OG311

angle_coeff	1  55  115    0      0  # CG2O2  OG311  HGP1
angle_coeff	2  39  119    0      0  # HGR52  CG2O2  OG2D1
angle_coeff	3  47  105    0      0  # HGR52  CG2O2  OG311
angle_coeff	4  50  123  210  2.262  # OG2D1  CG2O2  OG311

dihedral_coeff	1  3.45  2  180  1  # HGP1 OG311 CG2O2 HGR52
dihedral_coeff	2  2.05  2  180  1  # HGP1 OG311 CG2O2 OG2D1

improper_coeff	1  75  0  # CG2O2 OG2D1 OG311 HGR52

#####################-----magnetite-----#########################################

pair_coeff      6  6   9.0298e-07  4.07222  0  0 # Fe2
pair_coeff      7  7   9.0298e-07  4.07222  0  0 # Fe3
pair_coeff      8  8       0.1554  3.16554  0  0 # O

mass		6  55.845   # Fe2
mass		7  55.845   # Fe3
mass		8  15.9994  # O

#####################-----formate-----###########################################

mass		9     12.011   # CG2O3
mass		10   15.9994   # OG2D2

pair_coeff	9  9	0.07   3.56359487256    0.07	3.56359487256  # CG2O3
pair_coeff	10 10	0.12   3.02905564168	0.12    3.02905564168  # OG2D2

bond_coeff	5  238	1.1422  # CG2O3	HGR52
bond_coeff	6  525	  1.26	# CG2O3 OG2D2

angle_coeff	5   45	 116	0	 0  # HGR52 CG2O3 OG2D2
angle_coeff	6  100	 128   70   2.2587  # OG2D2 CG2O3 OG2D2

improper_coeff	2   67   0 # CG2O3 OG2D2 OG2D2 HGR52

##############---------magnetite_bonding-------###################################

pair_coeff      11 11 0.1554 3.1655 0.0 0.0     # Oh (Hydroxyl oxygen from Kerisit)
pair_coeff      12 12 0.0 0.0 0.0 0.0           # Ho (Hydroxyl hydrogen from Kerisit)

pair_coeff      13 13 9.0298e-07 4.07222  0 0   # DUMMY - Fe(III) first dummy atom
pair_coeff      14 14 0.1554 3.1655 0.0 0.0     # DUMMY - Oh (Hydroxyl oxygen from Kerisit)
pair_coeff      15 15 0.0 0.0 0.0 0.0           # DUMMY - Ho (Hydroxyl hydrogen from Kerisit)

mass            11 15.9994 # Oh
mass            12 1.008   # Ho

mass            13 55.845  # DUMMY - Fe(III)
mass            14 15.9994 # DUMMY - Oh
mass            15 1.008   # DUMMY - Ho

bond_coeff      7  554.1349  1.0  # Oh - Ho (CLayFF)

angle_coeff     7  30.0 109.470 0 0 # FeOct - Oh - Ho (ClayFF)

################################################################################################

molecule	mol1 rxn1_pre.data
Read molecule template mol1:
  1 molecules
  6 atoms with max type 8
  4 bonds with max type 4
  4 angles with max type 4
  2 dihedrals with max type 2
  1 impropers with max type 1
molecule	mol2 rxn1_post.data
Read molecule template mol2:
  1 molecules
  6 atoms with max type 10
  3 bonds with max type 6
  3 angles with max type 6
  0 dihedrals with max type 0
  1 impropers with max type 2
molecule	mol3 rxn2_pre.data
Read molecule template mol3:
  1 molecules
  2 atoms with max type 8
  0 bonds with max type 0
  0 angles with max type 0
  0 dihedrals with max type 0
  0 impropers with max type 0
molecule	mol4 rxn2_post.data
Read molecule template mol4:
  1 molecules
  2 atoms with max type 12
  1 bonds with max type 7
  0 angles with max type 0
  0 dihedrals with max type 0
  0 impropers with max type 0
molecule	mol5 rxn3_pre.data
Read molecule template mol5:
  1 molecules
  3 atoms with max type 12
  1 bonds with max type 7
  0 angles with max type 0
  0 dihedrals with max type 0
  0 impropers with max type 0
molecule	mol6 rxn3_post.data
Read molecule template mol6:
  1 molecules
  3 atoms with max type 13
  1 bonds with max type 7
  1 angles with max type 7
  0 dihedrals with max type 0
  0 impropers with max type 0

dump            dmp all custom 20 swap.lammpstrj id type q x y z
dump_modify     dmp sort id

fix		nvt all nvt temp 100.0 100.0 $(100*dt)
fix		nvt all nvt temp 100.0 100.0 50
run		100000
PPPM initialization ...
  G vector (1/distance) = 0.28920536
  grid = 15 15 192
  stencil order = 5
  estimated absolute RMS force accuracy = 0.00032025452
  estimated relative force accuracy = 9.6443697e-07
  3d grid and FFT values/proc = 80064 30600
  update every 1 steps, delay 0 steps, check yes
Step Temp E_pair E_mol TotEng Press
0            0    -25009.54    13.083791   -24996.456   -52686.982
Loop time of 266.175 on 8 procs for 100000 steps with 129 atoms

write_data	fa_on_001_17L_nvt100K.data
System init for write_data ...
PPPM initialization ...
  G vector (1/distance) = 0.28920536
  grid = 15 15 192
  stencil order = 5
  estimated absolute RMS force accuracy = 0.00032025452
  estimated relative force accuracy = 9.6443697e-07
  3d grid and FFT values/proc = 80064 30600
unfix		nvt

#########-------------bond react------###################################################
fix             rxns all bond/react stabilization yes statted_grp .01                 react rxn1 all 1 1.7 5.0 mol1 mol2 rxn1.map stabilize_steps 0 		react rxn2 all 1 1.7 5.0 mol3 mol4 rxn2.map stabilize_steps 0 		react rxn3 all 1 1.7 5.0 mol5 mol6 rxn3.map max_rxn 3
dynamic group bond_react_MASTER_group defined
dynamic group statted_grp_REACT defined

thermo          1
thermo_style    custom step temp pe f_rxns[1] f_rxns[2] f_rxns[3]
run             160

CITE-CITE-CITE-CITE-CITE-CITE-CITE-CITE-CITE-CITE-CITE-CITE-CITE

Your simulation uses code contributions which should be cited:

- fix bond/react:

@Article{Gissinger17,
 author = {J. R. Gissinger, B. D. Jensen, K. E. Wise},
 title = {Modeling chemical reactions in classical molecular dynamics simulations},
 journal = {Polymer},
 year =    2017,
 volume =  128,
 pages =   {211--217}
}

CITE-CITE-CITE-CITE-CITE-CITE-CITE-CITE-CITE-CITE-CITE-CITE-CITE

PPPM initialization ...
  G vector (1/distance) = 0.28920536
  grid = 15 15 192
  stencil order = 5
  estimated absolute RMS force accuracy = 0.00032025452
  estimated relative force accuracy = 9.6443697e-07
  3d grid and FFT values/proc = 80064 30600
  update every 1 steps, delay 0 steps, check yes
Step Temp PotEng f_rxns[1] f_rxns[2] f_rxns[3]
100000    109.07529   -25888.199            0            0            0
Loop time of 0.812327 on 8 procs for 160 steps with 129 atoms

write_data	fa_on_001_bond_react_1.data
System init for write_data ...
PPPM initialization ...
  G vector (1/distance) = 0.28920591
  grid = 15 15 192
  stencil order = 5
  estimated absolute RMS force accuracy = 0.00032180367
  estimated relative force accuracy = 9.6910219e-07
  3d grid and FFT values/proc = 80064 30600

######-----delete unwanted dihedral atoms, this is an error---##############################
delete_bonds	all dihedral 1 remove
System init for delete_bonds ...
PPPM initialization ...
  G vector (1/distance) = 0.28920591
  grid = 15 15 192
  stencil order = 5
  estimated absolute RMS force accuracy = 0.00032180367
  estimated relative force accuracy = 9.6910219e-07
  3d grid and FFT values/proc = 80064 30600
Deleting bonds ...
  4 total bonds, 4 turned on, 0 turned off
  4 total angles, 4 turned on, 0 turned off
  1 total dihedrals, 1 turned on, 0 turned off
  1 total impropers, 1 turned on, 0 turned off
delete_bonds	all dihedral 2 remove
System init for delete_bonds ...
PPPM initialization ...
  G vector (1/distance) = 0.28920591
  grid = 15 15 192
  stencil order = 5
  estimated absolute RMS force accuracy = 0.00032180367
  estimated relative force accuracy = 9.6910219e-07
  3d grid and FFT values/proc = 80064 30600
Deleting bonds ...
  4 total bonds, 4 turned on, 0 turned off
  4 total angles, 4 turned on, 0 turned off
  0 total dihedrals, 0 turned on, 0 turned off
  1 total impropers, 1 turned on, 0 turned off

unfix		rxns
#####----------making system charge neutral by changing 1 inner lattice Fe(II) to Fe(III)------#########
region          inner block INF INF INF INF 11.0 13.5 units box
group           fe2 type 6
12 atoms in group fe2
variable        fe2_i atom grmask(fe2,inner)
group           fe2_in variable fe2_i
3 atoms in group fe2_in

set             group fe2_in type/subset 7 1 855824
Setting atom values ...
  1 settings made for type/subset
set             type 7 charge 1.575
Setting atom values ...
  38 settings made for charge

group           fe2 delete
group           fe2_in delete

variable        qtot equal charge(all)
total charge of the system : -1.28785870856518e-14

#####----------electrostatic relaxation with mc swaps--------------########
group           Fe type 7 6
49 atoms in group Fe
fix             swp Fe atom/swap 1 100 710414 0.0 types 6 7
velocity        all create 0.0 755762 rot yes mom yes dist gaussian
thermo          1000
thermo_style    custom step temp pe f_swp[1] f_swp[2]
run             10000
PPPM initialization ...
  G vector (1/distance) = 0.28920668
  grid = 15 15 192
  stencil order = 5
  estimated absolute RMS force accuracy = 0.00032408823
  estimated relative force accuracy = 9.7598207e-07
  3d grid and FFT values/proc = 80064 30600
  update every 1 steps, delay 0 steps, check yes
Step Temp PotEng f_swp[1] f_swp[2]
100160            0   -25978.205            0            0
Averages over the last 6 of 12 rows, steps 106000 to 110160:
Temp PotEng f_swp[1] f_swp[2]
0 -25982.6 820000 2
Loop time of 3168.98 on 8 procs for 10000 steps with 129 atoms

unfix           swp
group           Fe delete

######--------system wide relaxation---------########################
fix             nve all nve
thermo          1000
thermo_style    custom step temp pe
run             40000
PPPM initialization ...
  G vector (1/distance) = 0.28920668
  grid = 15 15 192
  stencil order = 5
  estimated absolute RMS force accuracy = 0.00032408823
  estimated relative force accuracy = 9.7598207e-07
  3d grid and FFT values/proc = 80064 30600
Step Temp PotEng
110160            0   -25982.575
Averages over the last 21 of 42 rows, steps 131000 to 150160:
Temp PotEng
140.472 -26036.3
Loop time of 107.792 on 8 procs for 40000 steps with 129 atoms

unfix		nve
write_data      fa_on_001_nve_2.data
System init for write_data ...
PPPM initialization ...
  G vector (1/distance) = 0.28920668
  grid = 15 15 192
  stencil order = 5
  estimated absolute RMS force accuracy = 0.00032408823
  estimated relative force accuracy = 9.7598207e-07
  3d grid and FFT values/proc = 80064 30600
